


 24 27  0  0  0  0  0  0  0  0999 V2000
   28.2182   -0.8361    4.8271 C   0  0  0  0  0  0  0  0  0  0  0  0
   29.5110   -0.3815    5.4618 C   0  0  0  0  0  0  0  0  0  0  0  0
   29.5543    1.1146    5.0872 C   0  0  0  0  0  0  0  0  0  0  0  0
   28.0614    1.3997    4.8398 C   0  0  0  0  0  0  0  0  0  0  0  0
   27.8701    0.2546    3.8145 C   0  0  0  0  0  0  0  0  0  0  0  0
   26.3801    0.2443    3.5703 C   0  0  0  0  0  0  0  0  0  0  0  0
   25.7010    1.3642    3.6295 C   0  0  0  0  0  0  0  0  0  0  0  0
   26.3139    2.6570    3.9190 C   0  0  0  0  0  0  0  0  0  0  0  0
   25.6684    3.7937    4.0098 C   0  0  0  0  0  0  0  0  0  0  0  0
   24.1282    3.8105    3.8280 C   0  0  0  0  0  0  0  0  0  0  0  0
   23.6651    4.8951    4.7724 C   0  0  0  0  0  0  0  0  0  0  0  0
   24.2704    6.2366    4.4520 C   0  0  0  0  0  0  0  0  0  0  0  0
   23.5793    7.2586    4.3313 O   0  0  0  0  0  0  0  0  0  0  0  0
   25.7051    6.2217    4.3051 C   0  0  0  0  0  0  0  0  0  0  0  0
   26.3258    5.0693    4.1144 C   0  0  0  0  0  0  0  0  0  0  0  0
   27.8525    5.1014    4.0868 C   0  0  0  0  0  0  0  0  0  0  0  0
   28.2891    3.8874    4.8281 C   0  0  0  0  0  0  0  0  0  0  0  0
   27.7834    2.6616    4.1382 C   0  0  0  0  0  0  0  0  0  0  0  0
   28.6944   -1.9890    4.0268 O   0  0  0  0  0  0  0  0  0  0  0  0
   29.6410   -2.0154    4.0753 H   0  0  0  0  0  0  0  0  0  0  0  0
   26.6393   -2.6709    4.9355 C   0  0  0  0  0  0  0  0  0  0  0  0
   27.1295   -1.3879    5.6037 C   0  0  0  0  0  0  0  0  0  0  0  0
   28.5881    0.3011    2.5685 C   0  0  0  0  0  0  0  0  0  0  0  0
   28.1861   -0.8486    1.6375 C   0  0  0  0  0  0  0  0  0  0  0  0
 21 22  1  0  0  0
 22  1  1  0  0  0
  1  2  1  0  0  0
  2  3  1  0  0  0
  3  4  1  0  0  0
  4  5  1  0  0  0
  5  6  1  0  0  0
  6  7  2  0  0  0
  7  8  1  0  0  0
  8  9  2  0  0  0
  9 10  1  0  0  0
 10 11  1  0  0  0
 11 12  1  0  0  0
 12 13  2  0  0  0
 12 14  1  0  0  0
 14 15  2  0  0  0
 15 16  1  0  0  0
 16 17  1  0  0  0
 17 18  1  0  0  0
  5 23  1  0  0  0
 23 24  1  0  0  0
  1 19  1  0  0  0
  5  1  1  0  0  0
 18  4  1  0  0  0
 18  8  1  0  0  0
 15  9  1  0  0  0
 19 20  1  0  0  0
M  END
> <minimizedAffinity>
-8.95995

$$$$
