


 33 37  0  0  0  0  0  0  0  0999 V2000
   25.0799    3.6427    3.3137 C   0  0  0  0  0  0  0  0  0  0  0  0
   25.4949    4.4235    4.5921 C   0  0  0  0  0  0  0  0  0  0  0  0
   24.2272    4.8472    5.2288 C   0  0  0  0  0  0  0  0  0  0  0  0
   23.4021    5.6674    4.2499 C   0  0  0  0  0  0  0  0  0  0  0  0
   24.2460    6.7802    3.7327 C   0  0  0  0  0  0  0  0  0  0  0  0
   23.9062    7.9135    3.8279 O   0  0  0  0  0  0  0  0  0  0  0  0
   25.5752    6.3905    3.0730 C   0  0  0  0  0  0  0  0  0  0  0  0
   26.2767    5.6514    4.1193 C   0  0  0  0  0  0  0  0  0  0  0  0
   27.7607    5.6142    4.2842 C   0  0  0  0  0  0  0  0  0  0  0  0
   28.1920    4.3105    3.5919 C   0  0  0  0  0  0  0  0  0  0  0  0
   27.5930    3.1788    4.3273 C   0  0  0  0  0  0  0  0  0  0  0  0
   26.4834    3.6206    5.3171 C   0  0  0  0  0  0  0  0  0  0  0  0
   25.8744    2.4250    6.0179 C   0  0  0  0  0  0  0  0  0  0  0  0
   26.9346    1.6736    6.7823 C   0  0  0  0  0  0  0  0  0  0  0  0
   27.9797    1.2105    5.8257 C   0  0  0  0  0  0  0  0  0  0  0  0
   28.5340    2.3909    5.1040 C   0  0  0  0  0  0  0  0  0  0  0  0
   29.5240    1.6016    4.2047 C   0  0  0  0  0  0  0  0  0  0  0  0
   30.2066    0.7075    5.2475 C   0  0  0  0  0  0  0  0  0  0  0  0
   29.3163    0.8999    6.5162 C   0  0  0  0  0  0  0  0  0  0  0  0
   29.3811   -0.2002    7.2654 O   0  0  0  0  0  0  0  0  0  0  0  0
   28.8437   -0.1454    8.1061 H   0  0  0  0  0  0  0  0  0  0  0  0
   27.4986    0.1793    4.9029 C   0  0  0  0  0  0  0  0  0  0  0  0
   26.5395   -0.8459    5.4825 C   0  0  0  0  0  0  0  0  0  0  0  0
   26.6517   -2.0638    4.9539 O   0  0  0  0  0  0  0  0  0  0  0  0
   26.6700   -2.2044    3.6021 C   0  0  0  0  0  0  0  0  0  0  0  0
   28.1308   -2.0036    3.2069 C   0  0  0  0  0  0  0  0  0  0  0  0
   28.3601   -1.2877    2.0429 C   0  0  0  0  0  0  0  0  0  0  0  0
   29.6795   -1.1103    1.6508 C   0  0  0  0  0  0  0  0  0  0  0  0
   30.7076   -1.6029    2.3493 C   0  0  0  0  0  0  0  0  0  0  0  0
   30.4671   -2.3302    3.5293 C   0  0  0  0  0  0  0  0  0  0  0  0
   29.1427   -2.5137    3.9397 C   0  0  0  0  0  0  0  0  0  0  0  0
   31.4478   -2.8478    4.2844 F   0  0  0  0  0  0  0  0  0  0  0  0
   29.9529   -0.3892    0.5032 F   0  0  0  0  0  0  0  0  0  0  0  0
  2  1  1  0  0  0
  2  3  1  0  0  0
  3  4  1  0  0  0
  4  5  1  0  0  0
  5  6  2  0  0  0
  5  7  1  0  0  0
  7  8  1  0  0  0
  8  9  1  0  0  0
  9 10  1  0  0  0
 10 11  1  0  0  0
 11 12  1  0  0  0
 12 13  1  0  0  0
 13 14  1  0  0  0
 14 15  1  0  0  0
 15 16  1  0  0  0
 16 17  1  0  0  0
 17 18  1  0  0  0
 18 19  1  0  0  0
 19 20  1  0  0  0
 15 22  1  0  0  0
 22 23  1  0  0  0
 23 24  1  0  0  0
 24 25  1  0  0  0
 25 26  1  0  0  0
 26 27  2  0  0  0
 27 28  1  0  0  0
 28 29  2  0  0  0
 29 30  1  0  0  0
 30 31  2  0  0  0
 30 32  1  0  0  0
 28 33  1  0  0  0
  8  2  1  0  0  0
 12  2  1  0  0  0
 16 11  1  0  0  0
 19 15  1  0  0  0
 31 26  1  0  0  0
 20 21  1  0  0  0
M  END
> <minimizedAffinity>
-4.84821

$$$$



 33 37  0  0  0  0  0  0  0  0999 V2000
   26.5381    5.4878    5.7506 C   0  0  0  0  0  0  0  0  0  0  0  0
   26.1408    5.5260    4.2483 C   0  0  0  0  0  0  0  0  0  0  0  0
   27.1132    6.4365    3.6024 C   0  0  0  0  0  0  0  0  0  0  0  0
   27.0812    7.7973    4.2801 C   0  0  0  0  0  0  0  0  0  0  0  0
   25.6754    8.2888    4.2929 C   0  0  0  0  0  0  0  0  0  0  0  0
   25.3797    9.3373    3.8216 O   0  0  0  0  0  0  0  0  0  0  0  0
   24.6293    7.3741    4.9431 C   0  0  0  0  0  0  0  0  0  0  0  0
   24.7367    6.1315    4.1832 C   0  0  0  0  0  0  0  0  0  0  0  0
   23.6048    5.1912    3.9277 C   0  0  0  0  0  0  0  0  0  0  0  0
   23.7539    4.1072    5.0083 C   0  0  0  0  0  0  0  0  0  0  0  0
   25.0315    3.4027    4.7804 C   0  0  0  0  0  0  0  0  0  0  0  0
   25.9630    4.1462    3.7876 C   0  0  0  0  0  0  0  0  0  0  0  0
   27.2728    3.4071    3.6157 C   0  0  0  0  0  0  0  0  0  0  0  0
   27.0209    2.0152    3.0942 C   0  0  0  0  0  0  0  0  0  0  0  0
   26.1616    1.2848    4.0689 C   0  0  0  0  0  0  0  0  0  0  0  0
   24.8982    2.0496    4.2699 C   0  0  0  0  0  0  0  0  0  0  0  0
   24.2704    1.0859    5.3135 C   0  0  0  0  0  0  0  0  0  0  0  0
   24.4735   -0.2641    4.6143 C   0  0  0  0  0  0  0  0  0  0  0  0
   25.4351    0.0888    3.4353 C   0  0  0  0  0  0  0  0  0  0  0  0
   26.1647   -0.9841    3.1315 O   0  0  0  0  0  0  0  0  0  0  0  0
   26.7978   -0.8370    2.3723 H   0  0  0  0  0  0  0  0  0  0  0  0
   26.8404    1.0036    5.3364 C   0  0  0  0  0  0  0  0  0  0  0  0
   28.0585    1.8552    5.6491 C   0  0  0  0  0  0  0  0  0  0  0  0
   29.1798    1.1614    5.8401 O   0  0  0  0  0  0  0  0  0  0  0  0
   30.1559    1.1991    4.8950 C   0  0  0  0  0  0  0  0  0  0  0  0
   29.8588    0.0157    3.9774 C   0  0  0  0  0  0  0  0  0  0  0  0
   29.9527    0.2547    2.6158 C   0  0  0  0  0  0  0  0  0  0  0  0
   29.6661   -0.7998    1.7603 C   0  0  0  0  0  0  0  0  0  0  0  0
   29.3084   -2.0084    2.2065 C   0  0  0  0  0  0  0  0  0  0  0  0
   29.2135   -2.2432    3.5904 C   0  0  0  0  0  0  0  0  0  0  0  0
   29.5035   -1.1913    4.4653 C   0  0  0  0  0  0  0  0  0  0  0  0
   28.8676   -3.4303    4.1106 F   0  0  0  0  0  0  0  0  0  0  0  0
   29.7621   -0.6080    0.3944 F   0  0  0  0  0  0  0  0  0  0  0  0
  2  1  1  0  0  0
  2  3  1  0  0  0
  3  4  1  0  0  0
  4  5  1  0  0  0
  5  6  2  0  0  0
  5  7  1  0  0  0
  7  8  1  0  0  0
  8  9  1  0  0  0
  9 10  1  0  0  0
 10 11  1  0  0  0
 11 12  1  0  0  0
 12 13  1  0  0  0
 13 14  1  0  0  0
 14 15  1  0  0  0
 15 16  1  0  0  0
 16 17  1  0  0  0
 17 18  1  0  0  0
 18 19  1  0  0  0
 19 20  1  0  0  0
 15 22  1  0  0  0
 22 23  1  0  0  0
 23 24  1  0  0  0
 24 25  1  0  0  0
 25 26  1  0  0  0
 26 27  2  0  0  0
 27 28  1  0  0  0
 28 29  2  0  0  0
 29 30  1  0  0  0
 30 31  2  0  0  0
 30 32  1  0  0  0
 28 33  1  0  0  0
  8  2  1  0  0  0
 12  2  1  0  0  0
 16 11  1  0  0  0
 19 15  1  0  0  0
 31 26  1  0  0  0
 20 21  1  0  0  0
M  END
> <minimizedAffinity>
-3.91519

$$$$



 33 37  0  0  0  0  0  0  0  0999 V2000
   28.8782   -0.3970    2.8879 C   0  0  0  0  0  0  0  0  0  0  0  0
   28.7594   -0.8376    4.3738 C   0  0  0  0  0  0  0  0  0  0  0  0
   30.1340   -0.7715    4.9197 C   0  0  0  0  0  0  0  0  0  0  0  0
   31.0644   -1.6453    4.0935 C   0  0  0  0  0  0  0  0  0  0  0  0
   30.4859   -3.0155    4.0165 C   0  0  0  0  0  0  0  0  0  0  0  0
   31.1001   -3.9695    4.3652 O   0  0  0  0  0  0  0  0  0  0  0  0
   29.0586   -3.1332    3.4663 C   0  0  0  0  0  0  0  0  0  0  0  0
   28.2724   -2.2885    4.3615 C   0  0  0  0  0  0  0  0  0  0  0  0
   26.8404   -2.5253    4.7135 C   0  0  0  0  0  0  0  0  0  0  0  0
   26.0537   -1.6078    3.7624 C   0  0  0  0  0  0  0  0  0  0  0  0
   26.4062   -0.2087    4.0762 C   0  0  0  0  0  0  0  0  0  0  0  0
   27.6573   -0.0898    4.9853 C   0  0  0  0  0  0  0  0  0  0  0  0
   28.0013    1.3609    5.2475 C   0  0  0  0  0  0  0  0  0  0  0  0
   26.8455    2.0569    5.9203 C   0  0  0  0  0  0  0  0  0  0  0  0
   25.6538    1.9815    5.0281 C   0  0  0  0  0  0  0  0  0  0  0  0
   25.3575    0.5505    4.7344 C   0  0  0  0  0  0  0  0  0  0  0  0
   24.1428    0.8076    3.8015 C   0  0  0  0  0  0  0  0  0  0  0  0
   23.3365    1.7997    4.6491 C   0  0  0  0  0  0  0  0  0  0  0  0
   24.3340    2.1856    5.7872 C   0  0  0  0  0  0  0  0  0  0  0  0
   24.0535    3.4163    6.2142 O   0  0  0  0  0  0  0  0  0  0  0  0
   24.6458    3.7284    6.9562 H   0  0  0  0  0  0  0  0  0  0  0  0
   25.7999    2.7739    3.8047 C   0  0  0  0  0  0  0  0  0  0  0  0
   27.2099    2.9086    3.2563 C   0  0  0  0  0  0  0  0  0  0  0  0
   27.6174    4.1662    3.0908 O   0  0  0  0  0  0  0  0  0  0  0  0
   27.7724    4.9653    4.1794 C   0  0  0  0  0  0  0  0  0  0  0  0
   26.5433    5.8706    4.1792 C   0  0  0  0  0  0  0  0  0  0  0  0
   25.3131    5.2374    4.2550 C   0  0  0  0  0  0  0  0  0  0  0  0
   24.1795    6.0379    4.2344 C   0  0  0  0  0  0  0  0  0  0  0  0
   24.2442    7.3702    4.1431 C   0  0  0  0  0  0  0  0  0  0  0  0
   25.4966    8.0062    4.0648 C   0  0  0  0  0  0  0  0  0  0  0  0
   26.6483    7.2129    4.0887 C   0  0  0  0  0  0  0  0  0  0  0  0
   25.6389    9.3372    3.9781 F   0  0  0  0  0  0  0  0  0  0  0  0
   22.9327    5.4471    4.3229 F   0  0  0  0  0  0  0  0  0  0  0  0
  2  1  1  0  0  0
  2  3  1  0  0  0
  3  4  1  0  0  0
  4  5  1  0  0  0
  5  6  2  0  0  0
  5  7  1  0  0  0
  7  8  1  0  0  0
  8  9  1  0  0  0
  9 10  1  0  0  0
 10 11  1  0  0  0
 11 12  1  0  0  0
 12 13  1  0  0  0
 13 14  1  0  0  0
 14 15  1  0  0  0
 15 16  1  0  0  0
 16 17  1  0  0  0
 17 18  1  0  0  0
 18 19  1  0  0  0
 19 20  1  0  0  0
 15 22  1  0  0  0
 22 23  1  0  0  0
 23 24  1  0  0  0
 24 25  1  0  0  0
 25 26  1  0  0  0
 26 27  2  0  0  0
 27 28  1  0  0  0
 28 29  2  0  0  0
 29 30  1  0  0  0
 30 31  2  0  0  0
 30 32  1  0  0  0
 28 33  1  0  0  0
  8  2  1  0  0  0
 12  2  1  0  0  0
 16 11  1  0  0  0
 19 15  1  0  0  0
 31 26  1  0  0  0
 20 21  1  0  0  0
M  END
> <minimizedAffinity>
-2.70198

$$$$



 33 37  0  0  0  0  0  0  0  0999 V2000
   26.9940    4.3201    4.9166 C   0  0  0  0  0  0  0  0  0  0  0  0
   25.8970    4.0784    3.8423 C   0  0  0  0  0  0  0  0  0  0  0  0
   26.1356    5.0958    2.7937 C   0  0  0  0  0  0  0  0  0  0  0  0
   26.1013    6.4886    3.4028 C   0  0  0  0  0  0  0  0  0  0  0  0
   24.8239    6.6484    4.1517 C   0  0  0  0  0  0  0  0  0  0  0  0
   24.0717    7.5354    3.9147 O   0  0  0  0  0  0  0  0  0  0  0  0
   24.5279    5.6107    5.2424 C   0  0  0  0  0  0  0  0  0  0  0  0
   24.5522    4.3388    4.5251 C   0  0  0  0  0  0  0  0  0  0  0  0
   23.7338    3.1431    4.8875 C   0  0  0  0  0  0  0  0  0  0  0  0
   24.6830    2.2655    5.7204 C   0  0  0  0  0  0  0  0  0  0  0  0
   25.8009    1.8441    4.8526 C   0  0  0  0  0  0  0  0  0  0  0  0
   25.8733    2.6473    3.5275 C   0  0  0  0  0  0  0  0  0  0  0  0
   27.0550    2.2068    2.6902 C   0  0  0  0  0  0  0  0  0  0  0  0
   26.9428    0.7395    2.3621 C   0  0  0  0  0  0  0  0  0  0  0  0
   26.9172   -0.0370    3.6342 C   0  0  0  0  0  0  0  0  0  0  0  0
   25.7818    0.4425    4.4724 C   0  0  0  0  0  0  0  0  0  0  0  0
   26.0417   -0.4986    5.6802 C   0  0  0  0  0  0  0  0  0  0  0  0
   26.2032   -1.8451    4.9636 C   0  0  0  0  0  0  0  0  0  0  0  0
   26.3070   -1.4359    3.4599 C   0  0  0  0  0  0  0  0  0  0  0  0
   27.0305   -2.3463    2.8091 O   0  0  0  0  0  0  0  0  0  0  0  0
   27.1294   -2.1572    1.8328 H   0  0  0  0  0  0  0  0  0  0  0  0
   28.1897    0.0039    4.3589 C   0  0  0  0  0  0  0  0  0  0  0  0
   29.3307   -0.7985    3.7579 C   0  0  0  0  0  0  0  0  0  0  0  0
   29.9738   -1.5760    4.6280 O   0  0  0  0  0  0  0  0  0  0  0  0
   30.9234   -1.0311    5.4336 C   0  0  0  0  0  0  0  0  0  0  0  0
   30.2821    0.2360    5.9937 C   0  0  0  0  0  0  0  0  0  0  0  0
   30.5618    1.4153    5.3221 C   0  0  0  0  0  0  0  0  0  0  0  0
   30.0080    2.5843    5.8249 C   0  0  0  0  0  0  0  0  0  0  0  0
   29.2335    2.5999    6.9147 C   0  0  0  0  0  0  0  0  0  0  0  0
   28.9551    1.3989    7.5924 C   0  0  0  0  0  0  0  0  0  0  0  0
   29.5028    0.2119    7.0951 C   0  0  0  0  0  0  0  0  0  0  0  0
   28.1820    1.3368    8.6869 F   0  0  0  0  0  0  0  0  0  0  0  0
   30.2499    3.7809    5.1761 F   0  0  0  0  0  0  0  0  0  0  0  0
  2  1  1  0  0  0
  2  3  1  0  0  0
  3  4  1  0  0  0
  4  5  1  0  0  0
  5  6  2  0  0  0
  5  7  1  0  0  0
  7  8  1  0  0  0
  8  9  1  0  0  0
  9 10  1  0  0  0
 10 11  1  0  0  0
 11 12  1  0  0  0
 12 13  1  0  0  0
 13 14  1  0  0  0
 14 15  1  0  0  0
 15 16  1  0  0  0
 16 17  1  0  0  0
 17 18  1  0  0  0
 18 19  1  0  0  0
 19 20  1  0  0  0
 15 22  1  0  0  0
 22 23  1  0  0  0
 23 24  1  0  0  0
 24 25  1  0  0  0
 25 26  1  0  0  0
 26 27  2  0  0  0
 27 28  1  0  0  0
 28 29  2  0  0  0
 29 30  1  0  0  0
 30 31  2  0  0  0
 30 32  1  0  0  0
 28 33  1  0  0  0
  8  2  1  0  0  0
 12  2  1  0  0  0
 16 11  1  0  0  0
 19 15  1  0  0  0
 31 26  1  0  0  0
 20 21  1  0  0  0
M  END
> <minimizedAffinity>
-2.17627

$$$$
