


 30 31  0  0  0  0  0  0  0  0999 V2000
   26.3602    0.0669    3.9201 C   0  0  0  0  0  0  0  0  0  0  0  0
   26.4477    0.5667    2.7706 O   0  0  0  0  0  0  0  0  0  0  0  0
   25.9245    0.8903    4.9868 N   0  0  0  0  0  0  0  0  0  0  0  0
   25.8688    0.4192    5.9355 H   0  0  0  0  0  0  0  0  0  0  0  0
   25.5771    2.2635    4.8292 C   0  0  0  0  0  0  0  0  0  0  0  0
   24.3374    2.7582    5.1771 C   0  0  0  0  0  0  0  0  0  0  0  0
   24.0085    4.0798    5.0238 C   0  0  0  0  0  0  0  0  0  0  0  0
   24.9182    5.0111    4.5017 C   0  0  0  0  0  0  0  0  0  0  0  0
   26.1547    4.5190    4.1538 C   0  0  0  0  0  0  0  0  0  0  0  0
   26.4787    3.1704    4.3146 C   0  0  0  0  0  0  0  0  0  0  0  0
   27.1698    5.4350    3.5800 C   0  0  0  0  0  0  0  0  0  0  0  0
   27.5100    6.4056    4.4868 F   0  0  0  0  0  0  0  0  0  0  0  0
   28.3053    4.6914    3.2271 F   0  0  0  0  0  0  0  0  0  0  0  0
   26.6531    6.0105    2.4419 F   0  0  0  0  0  0  0  0  0  0  0  0
   24.5070    6.3516    4.3915 N   0  0  0  0  0  0  0  0  0  0  0  0
   23.9448    6.8985    3.4380 O   0  0  0  0  0  0  0  0  0  0  0  0
   24.7522    7.1859    5.4836 O   0  0  0  0  0  0  0  0  0  0  0  0
   26.5238   -1.6705    5.5749 C   0  0  0  0  0  0  0  0  0  0  0  0
   26.7223   -1.3643    4.0841 C   0  0  0  0  0  0  0  0  0  0  0  0
   25.8379   -2.2014    3.4115 O   0  0  0  0  0  0  0  0  0  0  0  0
   24.8939   -2.0702    3.7404 H   0  0  0  0  0  0  0  0  0  0  0  0
   28.1135   -1.6874    3.6446 C   0  0  0  0  0  0  0  0  0  0  0  0
   28.9990   -1.3566    4.6726 O   0  0  0  0  0  0  0  0  0  0  0  0
   29.2228   -0.0928    5.1699 C   0  0  0  0  0  0  0  0  0  0  0  0
   29.0705    0.1054    6.5268 C   0  0  0  0  0  0  0  0  0  0  0  0
   29.2822    1.3518    7.0773 C   0  0  0  0  0  0  0  0  0  0  0  0
   29.6493    2.4368    6.3101 C   0  0  0  0  0  0  0  0  0  0  0  0
   29.8024    2.2438    4.9562 C   0  0  0  0  0  0  0  0  0  0  0  0
   29.5900    0.9906    4.3987 C   0  0  0  0  0  0  0  0  0  0  0  0
   29.8579    3.6703    6.8616 F   0  0  0  0  0  0  0  0  0  0  0  0
 18 19  1  0  0  0
 19 22  1  0  0  0
 22 23  1  0  0  0
 23 24  1  0  0  0
 24 25  2  0  0  0
 25 26  1  0  0  0
 26 27  2  0  0  0
 27 28  1  0  0  0
 28 29  2  0  0  0
 27 30  1  0  0  0
 19  1  1  0  0  0
  1  2  2  0  0  0
  1  3  1  0  0  0
  3  5  1  0  0  0
  5  6  2  0  0  0
  6  7  1  0  0  0
  7  8  2  0  0  0
  8  9  1  0  0  0
  9 10  2  0  0  0
  9 11  1  0  0  0
 11 12  1  0  0  0
 11 13  1  0  0  0
 11 14  1  0  0  0
  8 15  1  0  0  0
 15 16  2  0  0  0
 15 17  1  0  0  0
 19 20  1  0  0  0
 29 24  1  0  0  0
 10  5  1  0  0  0
  3  4  1  0  0  0
 20 21  1  0  0  0
M  CHG 1  15   1
M  CHG 1  17  -1
M  END
> <minimizedAffinity>
-8.18369

$$$$



 30 31  0  0  0  0  0  0  0  0999 V2000
   28.6026    1.6423    5.9345 C   0  0  0  0  0  0  0  0  0  0  0  0
   27.9445    2.0322    6.9314 O   0  0  0  0  0  0  0  0  0  0  0  0
   28.4762    2.3545    4.7169 N   0  0  0  0  0  0  0  0  0  0  0  0
   29.0527    1.9835    3.9076 H   0  0  0  0  0  0  0  0  0  0  0  0
   27.6388    3.4966    4.5571 C   0  0  0  0  0  0  0  0  0  0  0  0
   28.1280    4.7236    4.1597 C   0  0  0  0  0  0  0  0  0  0  0  0
   27.3184    5.8186    4.0072 C   0  0  0  0  0  0  0  0  0  0  0  0
   25.9378    5.7552    4.2472 C   0  0  0  0  0  0  0  0  0  0  0  0
   25.4486    4.5323    4.6440 C   0  0  0  0  0  0  0  0  0  0  0  0
   26.2832    3.4232    4.7960 C   0  0  0  0  0  0  0  0  0  0  0  0
   24.0018    4.3837    4.9328 C   0  0  0  0  0  0  0  0  0  0  0  0
   23.4500    5.5945    5.2636 F   0  0  0  0  0  0  0  0  0  0  0  0
   23.3633    3.8610    3.7988 F   0  0  0  0  0  0  0  0  0  0  0  0
   23.8473    3.4936    5.9707 F   0  0  0  0  0  0  0  0  0  0  0  0
   25.1752    6.9208    4.0522 N   0  0  0  0  0  0  0  0  0  0  0  0
   24.4566    7.2071    3.0901 O   0  0  0  0  0  0  0  0  0  0  0  0
   25.2187    7.8873    5.0587 O   0  0  0  0  0  0  0  0  0  0  0  0
   30.8249    0.9966    6.5891 C   0  0  0  0  0  0  0  0  0  0  0  0
   29.4753    0.4520    6.1015 C   0  0  0  0  0  0  0  0  0  0  0  0
   29.0220   -0.3826    7.1180 O   0  0  0  0  0  0  0  0  0  0  0  0
   28.9785    0.1084    7.9974 H   0  0  0  0  0  0  0  0  0  0  0  0
   29.6351   -0.3568    4.8552 C   0  0  0  0  0  0  0  0  0  0  0  0
   28.4393   -1.0313    4.5994 O   0  0  0  0  0  0  0  0  0  0  0  0
   27.2627   -0.4560    4.1756 C   0  0  0  0  0  0  0  0  0  0  0  0
   27.2503    0.1573    2.9397 C   0  0  0  0  0  0  0  0  0  0  0  0
   26.0982    0.7493    2.4669 C   0  0  0  0  0  0  0  0  0  0  0  0
   24.9275    0.7547    3.1949 C   0  0  0  0  0  0  0  0  0  0  0  0
   24.9352    0.1441    4.4282 C   0  0  0  0  0  0  0  0  0  0  0  0
   26.0931   -0.4526    4.9072 C   0  0  0  0  0  0  0  0  0  0  0  0
   23.7882    1.3433    2.7209 F   0  0  0  0  0  0  0  0  0  0  0  0
 18 19  1  0  0  0
 19 22  1  0  0  0
 22 23  1  0  0  0
 23 24  1  0  0  0
 24 25  2  0  0  0
 25 26  1  0  0  0
 26 27  2  0  0  0
 27 28  1  0  0  0
 28 29  2  0  0  0
 27 30  1  0  0  0
 19  1  1  0  0  0
  1  2  2  0  0  0
  1  3  1  0  0  0
  3  5  1  0  0  0
  5  6  2  0  0  0
  6  7  1  0  0  0
  7  8  2  0  0  0
  8  9  1  0  0  0
  9 10  2  0  0  0
  9 11  1  0  0  0
 11 12  1  0  0  0
 11 13  1  0  0  0
 11 14  1  0  0  0
  8 15  1  0  0  0
 15 16  2  0  0  0
 15 17  1  0  0  0
 19 20  1  0  0  0
 29 24  1  0  0  0
 10  5  1  0  0  0
  3  4  1  0  0  0
 20 21  1  0  0  0
M  CHG 1  15   1
M  CHG 1  17  -1
M  END
> <minimizedAffinity>
-7.40489

$$$$



 30 31  0  0  0  0  0  0  0  0999 V2000
   26.5288    0.0261    4.1931 C   0  0  0  0  0  0  0  0  0  0  0  0
   25.8528    0.2956    5.2174 O   0  0  0  0  0  0  0  0  0  0  0  0
   26.8503    1.0745    3.2968 N   0  0  0  0  0  0  0  0  0  0  0  0
   27.4217    0.7927    2.4488 H   0  0  0  0  0  0  0  0  0  0  0  0
   26.4478    2.4276    3.4924 C   0  0  0  0  0  0  0  0  0  0  0  0
   27.2790    3.4941    3.2194 C   0  0  0  0  0  0  0  0  0  0  0  0
   26.8868    4.7935    3.4090 C   0  0  0  0  0  0  0  0  0  0  0  0
   25.6108    5.1163    3.8938 C   0  0  0  0  0  0  0  0  0  0  0  0
   24.7811    4.0537    4.1670 C   0  0  0  0  0  0  0  0  0  0  0  0
   25.1914    2.7336    3.9698 C   0  0  0  0  0  0  0  0  0  0  0  0
   23.4200    4.3080    4.6975 C   0  0  0  0  0  0  0  0  0  0  0  0
   23.0318    5.5956    4.4305 F   0  0  0  0  0  0  0  0  0  0  0  0
   22.5250    3.4060    4.1040 F   0  0  0  0  0  0  0  0  0  0  0  0
   23.4265    4.0874    6.0557 F   0  0  0  0  0  0  0  0  0  0  0  0
   25.2818    6.4753    4.0451 N   0  0  0  0  0  0  0  0  0  0  0  0
   24.8713    7.2587    3.1837 O   0  0  0  0  0  0  0  0  0  0  0  0
   25.4271    7.0289    5.3184 O   0  0  0  0  0  0  0  0  0  0  0  0
   26.6746   -2.0913    5.3240 C   0  0  0  0  0  0  0  0  0  0  0  0
   26.9481   -1.3842    3.9895 C   0  0  0  0  0  0  0  0  0  0  0  0
   26.1468   -2.0317    3.0546 O   0  0  0  0  0  0  0  0  0  0  0  0
   25.1795   -2.0231    3.3387 H   0  0  0  0  0  0  0  0  0  0  0  0
   28.3771   -1.5341    3.5791 C   0  0  0  0  0  0  0  0  0  0  0  0
   29.1931   -1.2488    4.6759 O   0  0  0  0  0  0  0  0  0  0  0  0
   29.3829   -0.0075    5.2398 C   0  0  0  0  0  0  0  0  0  0  0  0
   29.0733    0.1512    6.5749 C   0  0  0  0  0  0  0  0  0  0  0  0
   29.2444    1.3737    7.1895 C   0  0  0  0  0  0  0  0  0  0  0  0
   29.7239    2.4729    6.5095 C   0  0  0  0  0  0  0  0  0  0  0  0
   30.0340    2.3192    5.1775 C   0  0  0  0  0  0  0  0  0  0  0  0
   29.8630    1.0902    4.5557 C   0  0  0  0  0  0  0  0  0  0  0  0
   29.8914    3.6825    7.1241 F   0  0  0  0  0  0  0  0  0  0  0  0
 18 19  1  0  0  0
 19 22  1  0  0  0
 22 23  1  0  0  0
 23 24  1  0  0  0
 24 25  2  0  0  0
 25 26  1  0  0  0
 26 27  2  0  0  0
 27 28  1  0  0  0
 28 29  2  0  0  0
 27 30  1  0  0  0
 19  1  1  0  0  0
  1  2  2  0  0  0
  1  3  1  0  0  0
  3  5  1  0  0  0
  5  6  2  0  0  0
  6  7  1  0  0  0
  7  8  2  0  0  0
  8  9  1  0  0  0
  9 10  2  0  0  0
  9 11  1  0  0  0
 11 12  1  0  0  0
 11 13  1  0  0  0
 11 14  1  0  0  0
  8 15  1  0  0  0
 15 16  2  0  0  0
 15 17  1  0  0  0
 19 20  1  0  0  0
 29 24  1  0  0  0
 10  5  1  0  0  0
  3  4  1  0  0  0
 20 21  1  0  0  0
M  CHG 1  15   1
M  CHG 1  17  -1
M  END
> <minimizedAffinity>
-6.56869

$$$$



 30 31  0  0  0  0  0  0  0  0999 V2000
   26.4077    5.5018    3.8058 C   0  0  0  0  0  0  0  0  0  0  0  0
   26.4359    5.1051    2.6138 O   0  0  0  0  0  0  0  0  0  0  0  0
   27.0233    4.7045    4.8012 N   0  0  0  0  0  0  0  0  0  0  0  0
   26.9704    5.0848    5.7899 H   0  0  0  0  0  0  0  0  0  0  0  0
   27.6778    3.4689    4.5257 C   0  0  0  0  0  0  0  0  0  0  0  0
   28.9435    3.1812    4.9926 C   0  0  0  0  0  0  0  0  0  0  0  0
   29.5683    1.9912    4.7250 C   0  0  0  0  0  0  0  0  0  0  0  0
   28.9538    0.9911    3.9570 C   0  0  0  0  0  0  0  0  0  0  0  0
   27.6918    1.2768    3.4903 C   0  0  0  0  0  0  0  0  0  0  0  0
   27.0649    2.4928    3.7694 C   0  0  0  0  0  0  0  0  0  0  0  0
   26.9782    0.2787    2.6576 C   0  0  0  0  0  0  0  0  0  0  0  0
   27.8042   -0.2105    1.6787 F   0  0  0  0  0  0  0  0  0  0  0  0
   26.5390   -0.7688    3.4802 F   0  0  0  0  0  0  0  0  0  0  0  0
   25.8780    0.8807    2.0915 F   0  0  0  0  0  0  0  0  0  0  0  0
   29.6573   -0.2077    3.7417 N   0  0  0  0  0  0  0  0  0  0  0  0
   30.2610   -0.5629    2.7251 O   0  0  0  0  0  0  0  0  0  0  0  0
   29.6931   -1.1241    4.7943 O   0  0  0  0  0  0  0  0  0  0  0  0
   26.8165    7.7199    4.6405 C   0  0  0  0  0  0  0  0  0  0  0  0
   25.7254    6.7897    4.0926 C   0  0  0  0  0  0  0  0  0  0  0  0
   25.2649    7.4005    2.9307 O   0  0  0  0  0  0  0  0  0  0  0  0
   26.0224    7.5754    2.2888 H   0  0  0  0  0  0  0  0  0  0  0  0
   24.5859    6.6667    5.0513 C   0  0  0  0  0  0  0  0  0  0  0  0
   23.7270    5.6606    4.6036 O   0  0  0  0  0  0  0  0  0  0  0  0
   23.8579    4.3144    4.8596 C   0  0  0  0  0  0  0  0  0  0  0  0
   23.5593    3.4302    3.8434 C   0  0  0  0  0  0  0  0  0  0  0  0
   23.6732    2.0711    4.0462 C   0  0  0  0  0  0  0  0  0  0  0  0
   24.0835    1.5439    5.2523 C   0  0  0  0  0  0  0  0  0  0  0  0
   24.3823    2.4222    6.2687 C   0  0  0  0  0  0  0  0  0  0  0  0
   24.2687    3.7908    6.0681 C   0  0  0  0  0  0  0  0  0  0  0  0
   24.1946    0.1953    5.4475 F   0  0  0  0  0  0  0  0  0  0  0  0
 18 19  1  0  0  0
 19 22  1  0  0  0
 22 23  1  0  0  0
 23 24  1  0  0  0
 24 25  2  0  0  0
 25 26  1  0  0  0
 26 27  2  0  0  0
 27 28  1  0  0  0
 28 29  2  0  0  0
 27 30  1  0  0  0
 19  1  1  0  0  0
  1  2  2  0  0  0
  1  3  1  0  0  0
  3  5  1  0  0  0
  5  6  2  0  0  0
  6  7  1  0  0  0
  7  8  2  0  0  0
  8  9  1  0  0  0
  9 10  2  0  0  0
  9 11  1  0  0  0
 11 12  1  0  0  0
 11 13  1  0  0  0
 11 14  1  0  0  0
  8 15  1  0  0  0
 15 16  2  0  0  0
 15 17  1  0  0  0
 19 20  1  0  0  0
 29 24  1  0  0  0
 10  5  1  0  0  0
  3  4  1  0  0  0
 20 21  1  0  0  0
M  CHG 1  15   1
M  CHG 1  17  -1
M  END
> <minimizedAffinity>
-6.41495

$$$$



 30 31  0  0  0  0  0  0  0  0999 V2000
   28.5703    1.5085    3.9709 C   0  0  0  0  0  0  0  0  0  0  0  0
   28.8457    1.9385    5.1190 O   0  0  0  0  0  0  0  0  0  0  0  0
   27.7575    2.3025    3.1257 N   0  0  0  0  0  0  0  0  0  0  0  0
   27.5553    1.8930    2.1684 H   0  0  0  0  0  0  0  0  0  0  0  0
   27.2305    3.5708    3.5062 C   0  0  0  0  0  0  0  0  0  0  0  0
   28.0051    4.7114    3.5503 C   0  0  0  0  0  0  0  0  0  0  0  0
   27.4933    5.9287    3.9165 C   0  0  0  0  0  0  0  0  0  0  0  0
   26.1450    6.0867    4.2694 C   0  0  0  0  0  0  0  0  0  0  0  0
   25.3714    4.9501    4.2264 C   0  0  0  0  0  0  0  0  0  0  0  0
   25.9038    3.7149    3.8515 C   0  0  0  0  0  0  0  0  0  0  0  0
   23.9384    5.0278    4.5994 C   0  0  0  0  0  0  0  0  0  0  0  0
   23.1623    4.3925    3.6647 F   0  0  0  0  0  0  0  0  0  0  0  0
   23.7623    4.4277    5.8548 F   0  0  0  0  0  0  0  0  0  0  0  0
   23.5772    6.3523    4.6936 F   0  0  0  0  0  0  0  0  0  0  0  0
   25.6958    7.3732    4.6181 N   0  0  0  0  0  0  0  0  0  0  0  0
   25.5255    7.8385    5.7489 O   0  0  0  0  0  0  0  0  0  0  0  0
   25.4018    8.2511    3.5733 O   0  0  0  0  0  0  0  0  0  0  0  0
   30.0354    0.4647    2.3748 C   0  0  0  0  0  0  0  0  0  0  0  0
   29.1197    0.1865    3.5747 C   0  0  0  0  0  0  0  0  0  0  0  0
   29.9471   -0.3451    4.5586 O   0  0  0  0  0  0  0  0  0  0  0  0
   30.7167    0.2746    4.7583 H   0  0  0  0  0  0  0  0  0  0  0  0
   28.0720   -0.8234    3.2348 C   0  0  0  0  0  0  0  0  0  0  0  0
   27.1441   -0.8781    4.2771 O   0  0  0  0  0  0  0  0  0  0  0  0
   25.9908   -0.1325    4.3711 C   0  0  0  0  0  0  0  0  0  0  0  0
   25.6287    0.3458    5.6136 C   0  0  0  0  0  0  0  0  0  0  0  0
   24.4828    1.0979    5.7641 C   0  0  0  0  0  0  0  0  0  0  0  0
   23.6620    1.4005    4.6986 C   0  0  0  0  0  0  0  0  0  0  0  0
   24.0193    0.9254    3.4574 C   0  0  0  0  0  0  0  0  0  0  0  0
   25.1719    0.1680    3.3023 C   0  0  0  0  0  0  0  0  0  0  0  0
   22.5270    2.1467    4.8538 F   0  0  0  0  0  0  0  0  0  0  0  0
 18 19  1  0  0  0
 19 22  1  0  0  0
 22 23  1  0  0  0
 23 24  1  0  0  0
 24 25  2  0  0  0
 25 26  1  0  0  0
 26 27  2  0  0  0
 27 28  1  0  0  0
 28 29  2  0  0  0
 27 30  1  0  0  0
 19  1  1  0  0  0
  1  2  2  0  0  0
  1  3  1  0  0  0
  3  5  1  0  0  0
  5  6  2  0  0  0
  6  7  1  0  0  0
  7  8  2  0  0  0
  8  9  1  0  0  0
  9 10  2  0  0  0
  9 11  1  0  0  0
 11 12  1  0  0  0
 11 13  1  0  0  0
 11 14  1  0  0  0
  8 15  1  0  0  0
 15 16  2  0  0  0
 15 17  1  0  0  0
 19 20  1  0  0  0
 29 24  1  0  0  0
 10  5  1  0  0  0
  3  4  1  0  0  0
 20 21  1  0  0  0
M  CHG 1  15   1
M  CHG 1  17  -1
M  END
> <minimizedAffinity>
-6.31496

$$$$



 30 31  0  0  0  0  0  0  0  0999 V2000
   26.4073    5.2661    3.7740 C   0  0  0  0  0  0  0  0  0  0  0  0
   26.5437    4.9144    2.5755 O   0  0  0  0  0  0  0  0  0  0  0  0
   26.8760    4.4011    4.7928 N   0  0  0  0  0  0  0  0  0  0  0  0
   26.7359    4.7456    5.7861 H   0  0  0  0  0  0  0  0  0  0  0  0
   27.4982    3.1454    4.5337 C   0  0  0  0  0  0  0  0  0  0  0  0
   27.3121    2.4565    3.3532 C   0  0  0  0  0  0  0  0  0  0  0  0
   27.9132    1.2494    3.1088 C   0  0  0  0  0  0  0  0  0  0  0  0
   28.7571    0.6411    4.0496 C   0  0  0  0  0  0  0  0  0  0  0  0
   28.9432    1.3267    5.2276 C   0  0  0  0  0  0  0  0  0  0  0  0
   28.3257    2.5562    5.4655 C   0  0  0  0  0  0  0  0  0  0  0  0
   29.8091    0.7453    6.2816 C   0  0  0  0  0  0  0  0  0  0  0  0
   30.9182    0.1614    5.7259 F   0  0  0  0  0  0  0  0  0  0  0  0
   30.1966    1.7638    7.1645 F   0  0  0  0  0  0  0  0  0  0  0  0
   29.0836   -0.1894    6.9840 F   0  0  0  0  0  0  0  0  0  0  0  0
   29.3470   -0.5909    3.7145 N   0  0  0  0  0  0  0  0  0  0  0  0
   29.2453   -1.6690    4.3075 O   0  0  0  0  0  0  0  0  0  0  0  0
   30.1496   -0.6243    2.5727 O   0  0  0  0  0  0  0  0  0  0  0  0
   26.8573    7.4620    4.6455 C   0  0  0  0  0  0  0  0  0  0  0  0
   25.7587    6.5749    4.0438 C   0  0  0  0  0  0  0  0  0  0  0  0
   25.3695    7.2105    2.8691 O   0  0  0  0  0  0  0  0  0  0  0  0
   26.1591    7.3636    2.2613 H   0  0  0  0  0  0  0  0  0  0  0  0
   24.5760    6.4847    4.9525 C   0  0  0  0  0  0  0  0  0  0  0  0
   23.7252    5.4801    4.4863 O   0  0  0  0  0  0  0  0  0  0  0  0
   23.8786    4.1289    4.6999 C   0  0  0  0  0  0  0  0  0  0  0  0
   24.1646    3.7043    5.9811 C   0  0  0  0  0  0  0  0  0  0  0  0
   24.3283    2.3619    6.2503 C   0  0  0  0  0  0  0  0  0  0  0  0
   24.2155    1.4006    5.2686 C   0  0  0  0  0  0  0  0  0  0  0  0
   23.9304    1.8195    3.9892 C   0  0  0  0  0  0  0  0  0  0  0  0
   23.7651    3.1699    3.7146 C   0  0  0  0  0  0  0  0  0  0  0  0
   24.3789    0.0709    5.5415 F   0  0  0  0  0  0  0  0  0  0  0  0
 18 19  1  0  0  0
 19 22  1  0  0  0
 22 23  1  0  0  0
 23 24  1  0  0  0
 24 25  2  0  0  0
 25 26  1  0  0  0
 26 27  2  0  0  0
 27 28  1  0  0  0
 28 29  2  0  0  0
 27 30  1  0  0  0
 19  1  1  0  0  0
  1  2  2  0  0  0
  1  3  1  0  0  0
  3  5  1  0  0  0
  5  6  2  0  0  0
  6  7  1  0  0  0
  7  8  2  0  0  0
  8  9  1  0  0  0
  9 10  2  0  0  0
  9 11  1  0  0  0
 11 12  1  0  0  0
 11 13  1  0  0  0
 11 14  1  0  0  0
  8 15  1  0  0  0
 15 16  2  0  0  0
 15 17  1  0  0  0
 19 20  1  0  0  0
 29 24  1  0  0  0
 10  5  1  0  0  0
  3  4  1  0  0  0
 20 21  1  0  0  0
M  CHG 1  15   1
M  CHG 1  17  -1
M  END
> <minimizedAffinity>
-5.95131

$$$$



 30 31  0  0  0  0  0  0  0  0999 V2000
   28.8067    1.4408    5.7875 C   0  0  0  0  0  0  0  0  0  0  0  0
   29.4166    2.4603    5.3783 O   0  0  0  0  0  0  0  0  0  0  0  0
   27.3934    1.4824    5.8688 N   0  0  0  0  0  0  0  0  0  0  0  0
   26.9288    0.5961    6.2205 H   0  0  0  0  0  0  0  0  0  0  0  0
   26.6182    2.6232    5.5101 C   0  0  0  0  0  0  0  0  0  0  0  0
   25.2924    2.7590    5.8657 C   0  0  0  0  0  0  0  0  0  0  0  0
   24.5515    3.8584    5.5185 C   0  0  0  0  0  0  0  0  0  0  0  0
   25.1011    4.9151    4.7777 C   0  0  0  0  0  0  0  0  0  0  0  0
   26.4231    4.7808    4.4219 C   0  0  0  0  0  0  0  0  0  0  0  0
   27.1683    3.6560    4.7814 C   0  0  0  0  0  0  0  0  0  0  0  0
   27.0763    5.8467    3.6247 C   0  0  0  0  0  0  0  0  0  0  0  0
   26.2293    6.3064    2.6494 F   0  0  0  0  0  0  0  0  0  0  0  0
   27.4360    6.8984    4.4801 F   0  0  0  0  0  0  0  0  0  0  0  0
   28.2202    5.3354    3.0558 F   0  0  0  0  0  0  0  0  0  0  0  0
   24.2770    6.0142    4.4760 N   0  0  0  0  0  0  0  0  0  0  0  0
   23.3564    6.0717    3.6554 O   0  0  0  0  0  0  0  0  0  0  0  0
   24.5082    7.1971    5.1804 O   0  0  0  0  0  0  0  0  0  0  0  0
   30.8693    0.8074    6.8498 C   0  0  0  0  0  0  0  0  0  0  0  0
   29.6149    0.2520    6.1613 C   0  0  0  0  0  0  0  0  0  0  0  0
   28.9767   -0.5254    7.1224 O   0  0  0  0  0  0  0  0  0  0  0  0
   28.7903    0.0101    7.9560 H   0  0  0  0  0  0  0  0  0  0  0  0
   29.9736   -0.6206    5.0025 C   0  0  0  0  0  0  0  0  0  0  0  0
   28.8278   -1.2944    4.5742 O   0  0  0  0  0  0  0  0  0  0  0  0
   27.7043   -0.7124    4.0321 C   0  0  0  0  0  0  0  0  0  0  0  0
   26.4792   -1.0394    4.5762 C   0  0  0  0  0  0  0  0  0  0  0  0
   25.3220   -0.4852    4.0711 C   0  0  0  0  0  0  0  0  0  0  0  0
   25.3369    0.4048    3.0183 C   0  0  0  0  0  0  0  0  0  0  0  0
   26.5566    0.7338    2.4725 C   0  0  0  0  0  0  0  0  0  0  0  0
   27.7233    0.1778    2.9784 C   0  0  0  0  0  0  0  0  0  0  0  0
   24.1861    0.9510    2.5217 F   0  0  0  0  0  0  0  0  0  0  0  0
 18 19  1  0  0  0
 19 22  1  0  0  0
 22 23  1  0  0  0
 23 24  1  0  0  0
 24 25  2  0  0  0
 25 26  1  0  0  0
 26 27  2  0  0  0
 27 28  1  0  0  0
 28 29  2  0  0  0
 27 30  1  0  0  0
 19  1  1  0  0  0
  1  2  2  0  0  0
  1  3  1  0  0  0
  3  5  1  0  0  0
  5  6  2  0  0  0
  6  7  1  0  0  0
  7  8  2  0  0  0
  8  9  1  0  0  0
  9 10  2  0  0  0
  9 11  1  0  0  0
 11 12  1  0  0  0
 11 13  1  0  0  0
 11 14  1  0  0  0
  8 15  1  0  0  0
 15 16  2  0  0  0
 15 17  1  0  0  0
 19 20  1  0  0  0
 29 24  1  0  0  0
 10  5  1  0  0  0
  3  4  1  0  0  0
 20 21  1  0  0  0
M  CHG 1  15   1
M  CHG 1  17  -1
M  END
> <minimizedAffinity>
-5.81575

$$$$



 30 31  0  0  0  0  0  0  0  0999 V2000
   28.0587   -0.2169    3.0653 C   0  0  0  0  0  0  0  0  0  0  0  0
   26.9761   -0.7367    3.4351 O   0  0  0  0  0  0  0  0  0  0  0  0
   28.1556    1.1956    3.0281 N   0  0  0  0  0  0  0  0  0  0  0  0
   29.0903    1.5820    2.7087 H   0  0  0  0  0  0  0  0  0  0  0  0
   27.0872    2.0670    3.3889 C   0  0  0  0  0  0  0  0  0  0  0  0
   25.8081    1.6100    3.6293 C   0  0  0  0  0  0  0  0  0  0  0  0
   24.7843    2.4523    3.9764 C   0  0  0  0  0  0  0  0  0  0  0  0
   24.9785    3.8351    4.1084 C   0  0  0  0  0  0  0  0  0  0  0  0
   26.2535    4.2924    3.8684 C   0  0  0  0  0  0  0  0  0  0  0  0
   27.2890    3.4247    3.5155 C   0  0  0  0  0  0  0  0  0  0  0  0
   26.5400    5.7435    3.9717 C   0  0  0  0  0  0  0  0  0  0  0  0
   26.0446    6.2499    5.1456 F   0  0  0  0  0  0  0  0  0  0  0  0
   27.9278    5.9379    3.9152 F   0  0  0  0  0  0  0  0  0  0  0  0
   25.9648    6.3853    2.8990 F   0  0  0  0  0  0  0  0  0  0  0  0
   23.8787    4.6278    4.4832 N   0  0  0  0  0  0  0  0  0  0  0  0
   23.5013    5.6907    3.9812 O   0  0  0  0  0  0  0  0  0  0  0  0
   23.1012    4.1760    5.5510 O   0  0  0  0  0  0  0  0  0  0  0  0
   28.6819   -1.8850    1.4490 C   0  0  0  0  0  0  0  0  0  0  0  0
   29.1720   -1.1254    2.6893 C   0  0  0  0  0  0  0  0  0  0  0  0
   30.2965   -0.4200    2.2731 O   0  0  0  0  0  0  0  0  0  0  0  0
   30.0828    0.1687    1.4830 H   0  0  0  0  0  0  0  0  0  0  0  0
   29.5746   -2.0666    3.7778 C   0  0  0  0  0  0  0  0  0  0  0  0
   30.3245   -1.3659    4.7250 O   0  0  0  0  0  0  0  0  0  0  0  0
   29.9452   -0.2019    5.3544 C   0  0  0  0  0  0  0  0  0  0  0  0
   30.6813    0.9382    5.1054 C   0  0  0  0  0  0  0  0  0  0  0  0
   30.3448    2.1310    5.7099 C   0  0  0  0  0  0  0  0  0  0  0  0
   29.2765    2.2361    6.5749 C   0  0  0  0  0  0  0  0  0  0  0  0
   28.5394    1.1014    6.8261 C   0  0  0  0  0  0  0  0  0  0  0  0
   28.8754   -0.1008    6.2195 C   0  0  0  0  0  0  0  0  0  0  0  0
   28.9475    3.4215    7.1713 F   0  0  0  0  0  0  0  0  0  0  0  0
 18 19  1  0  0  0
 19 22  1  0  0  0
 22 23  1  0  0  0
 23 24  1  0  0  0
 24 25  2  0  0  0
 25 26  1  0  0  0
 26 27  2  0  0  0
 27 28  1  0  0  0
 28 29  2  0  0  0
 27 30  1  0  0  0
 19  1  1  0  0  0
  1  2  2  0  0  0
  1  3  1  0  0  0
  3  5  1  0  0  0
  5  6  2  0  0  0
  6  7  1  0  0  0
  7  8  2  0  0  0
  8  9  1  0  0  0
  9 10  2  0  0  0
  9 11  1  0  0  0
 11 12  1  0  0  0
 11 13  1  0  0  0
 11 14  1  0  0  0
  8 15  1  0  0  0
 15 16  2  0  0  0
 15 17  1  0  0  0
 19 20  1  0  0  0
 29 24  1  0  0  0
 10  5  1  0  0  0
  3  4  1  0  0  0
 20 21  1  0  0  0
M  CHG 1  15   1
M  CHG 1  17  -1
M  END
> <minimizedAffinity>
-5.64777

$$$$



 30 31  0  0  0  0  0  0  0  0999 V2000
   28.6295    1.7439    6.1114 C   0  0  0  0  0  0  0  0  0  0  0  0
   28.9107    2.7316    6.8354 O   0  0  0  0  0  0  0  0  0  0  0  0
   27.7366    1.9288    5.0278 N   0  0  0  0  0  0  0  0  0  0  0  0
   27.5332    1.0633    4.4494 H   0  0  0  0  0  0  0  0  0  0  0  0
   27.1347    3.1808    4.7096 C   0  0  0  0  0  0  0  0  0  0  0  0
   27.8555    4.2404    4.1992 C   0  0  0  0  0  0  0  0  0  0  0  0
   27.2717    5.4422    3.8944 C   0  0  0  0  0  0  0  0  0  0  0  0
   25.9001    5.6659    4.0846 C   0  0  0  0  0  0  0  0  0  0  0  0
   25.1801    4.6103    4.5940 C   0  0  0  0  0  0  0  0  0  0  0  0
   25.7857    3.3901    4.9007 C   0  0  0  0  0  0  0  0  0  0  0  0
   23.7264    4.7691    4.8393 C   0  0  0  0  0  0  0  0  0  0  0  0
   23.2950    3.8669    5.7773 F   0  0  0  0  0  0  0  0  0  0  0  0
   23.4806    6.0761    5.2846 F   0  0  0  0  0  0  0  0  0  0  0  0
   23.0544    4.5775    3.6539 F   0  0  0  0  0  0  0  0  0  0  0  0
   25.3768    6.9229    3.7319 N   0  0  0  0  0  0  0  0  0  0  0  0
   24.5698    7.1861    2.8354 O   0  0  0  0  0  0  0  0  0  0  0  0
   25.8067    8.0240    4.4745 O   0  0  0  0  0  0  0  0  0  0  0  0
   29.6393    0.5322    7.9269 C   0  0  0  0  0  0  0  0  0  0  0  0
   29.2570    0.4391    6.4434 C   0  0  0  0  0  0  0  0  0  0  0  0
   28.3458   -0.6088    6.3593 O   0  0  0  0  0  0  0  0  0  0  0  0
   27.5658   -0.4613    6.9807 H   0  0  0  0  0  0  0  0  0  0  0  0
   30.4436    0.1092    5.5972 C   0  0  0  0  0  0  0  0  0  0  0  0
   30.2150   -1.1106    4.9566 O   0  0  0  0  0  0  0  0  0  0  0  0
   29.6424   -1.2760    3.7158 C   0  0  0  0  0  0  0  0  0  0  0  0
   30.4681   -1.2357    2.6112 C   0  0  0  0  0  0  0  0  0  0  0  0
   29.9464   -1.3956    1.3449 C   0  0  0  0  0  0  0  0  0  0  0  0
   28.6001   -1.5994    1.1294 C   0  0  0  0  0  0  0  0  0  0  0  0
   27.7727   -1.6403    2.2283 C   0  0  0  0  0  0  0  0  0  0  0  0
   28.2944   -1.4797    3.5044 C   0  0  0  0  0  0  0  0  0  0  0  0
   28.0885   -1.7573   -0.1286 F   0  0  0  0  0  0  0  0  0  0  0  0
 18 19  1  0  0  0
 19 22  1  0  0  0
 22 23  1  0  0  0
 23 24  1  0  0  0
 24 25  2  0  0  0
 25 26  1  0  0  0
 26 27  2  0  0  0
 27 28  1  0  0  0
 28 29  2  0  0  0
 27 30  1  0  0  0
 19  1  1  0  0  0
  1  2  2  0  0  0
  1  3  1  0  0  0
  3  5  1  0  0  0
  5  6  2  0  0  0
  6  7  1  0  0  0
  7  8  2  0  0  0
  8  9  1  0  0  0
  9 10  2  0  0  0
  9 11  1  0  0  0
 11 12  1  0  0  0
 11 13  1  0  0  0
 11 14  1  0  0  0
  8 15  1  0  0  0
 15 16  2  0  0  0
 15 17  1  0  0  0
 19 20  1  0  0  0
 29 24  1  0  0  0
 10  5  1  0  0  0
  3  4  1  0  0  0
 20 21  1  0  0  0
M  CHG 1  15   1
M  CHG 1  17  -1
M  END
> <minimizedAffinity>
-5.36032

$$$$
